 66
 00
 C0
 0F
 00
 00
 00
 00
 BA
 00
 3C
 B7
 3C
 17
 3C
 E9
 00
 00
 01
 2E
 B0
 05
 B0
 05
 B3
 00
 3F
 00
 E8
 00
 9F
 BF
 00
 0C
 00
 EE
 B0
 05
 B0
 05
 B3
 00
 7F
 00
 E8
 00
 5F
 BF
 00
 08
 00
 AE
 E9
 00
 00
 C1
 07
 08
 C1
 07
 08
 1F
 1D
 00
 35
 00
 00
 00
 8F
 00
 75
 BA
 08
 D8
 0C
 02
 FE
 C3
 00
 EE
 00
 EE
 00
 B0
 05
 C3
 05
 B9
 00
 ED
 C3
 00
 00
 B9
 00
 00
 B9
 00
 00
 BF
 00
 02
 20
 B9
 00
 01
 09
 3C
 E0
 B8
 00
 09
 00
 1C
 B0
 00
 19
 09
 00
 00
 EA
 00
 00
 E8
 00
 04
 FE
 50
 03
 24
 BA
 00
 5A
 FB
 B0
 F8
 B0
 F9
 B0
 FB
 B0
 FA
 B0
 00
 00
 FC
 EE
 00
 C8
 BB
 00
 19
 00
 39
 BA
 00
 D8
 BA
 00
 D8
 FF
 1E
 C3
 E8
 FF
 EB
 00
 00
 00
 00
 00
 00
 00
 00
 00
 00
 00
 00
 00
 00
 00
 00
 00
 00
 00
 00
 00
 00
 00
 00
 00
 00
 00
 00
 00
 00
 00
 00
 00
 00
 63
 6F
 74
 30
 35
 6E
 6F
 2F
 2F
 30
 20
 63
 75
 3D
 00
 00
 00
 00
 00
 00
 00
 00
 00
 00
 00
 00
 00
 00
 00
 00
 00
 00
 00
 00
 00
 00
 42
 20
 79
 61
 0D
 00
 00
 00
 E9
 00
 00
 00
 00
 00
 00
 00
 EB
 90
 90
 90


